[General]
network = Network
sim-time-limit = 200s

Network.nodeTx.gen.generationInterval = exponential(0.1)
Network.nodeTx.gen.packetByteSize = 12500

Network.nodeTx.traTx.bufferSize = 2000000
Network.nodeTx.traTx.windowSize = 200

Network.queue0.bufferSize = 50
Network.queue1.bufferSize = 200

Network.nodeRx.traRx.bufferSize = 200