[General]
network = Network
sim-time-limit = 200s
**.cmdenv-log-level = trace
cmdenv-output-file = .cmdenv-log
cmdenv-express-mode = false
cmdenv-redirect-output = true

Network.nodeTx.gen.generationInterval = exponential(0.1)
Network.nodeTx.gen.packetByteSize = 12500

Network.nodeTx.traTx.bufferSize = 2000000
Network.nodeTx.traTx.windowSize = 200

Network.queue0.bufferSize = 200
Network.queue1.bufferSize = 200

Network.nodeRx.traRx.bufferSize = 200